@<TRIPOS>MOLECULE
Molecule
  6  12 0 0 0
SMALL
GASTEIGER

@<TRIPOS>ATOM
      1 C          -0.1696    0.6340    0.0225 C_2     1  UNL1        0.0000
      2 O          -0.1815    1.8530   -0.0071 O_2     1  UNL1        0.0000
      3 H          -1.1034    0.0830    0.0449 H       1  UNL1        0.0000
      4 H           0.7747    0.1008    0.0265 H       1  UNL1        0.0000
      5 Du         -0.1696    0.6340    1.0225 Du      1  UNL1        0.0000
      6 Du         -0.1815    1.8530    0.9929 Du      1  UNL1        0.0000
@<TRIPOS>BOND
     1     1     2    1
     2     1     3    1
     3     1     4    1
     4     1     5    1
     5     1     6    1
     6     2     3    1
     7     2     4    1
     8     2     5    1
     9     2     6    1
    10     3     4    1
    11     3     5    1
    12     4     5    1
