
 OpenBabel05312608103D

 38 44  0  0  0  0  0  0  0  0999 V2000
    2.8965    0.0146    0.0000 C   0  0  0  0  0  0  0  0  0  0  0  0
   -3.6255   -1.2419    0.0000 C   0  0  0  0  0  0  0  0  0  0  0  0
    1.4376    0.0092    0.0000 C   0  0  0  0  0  0  0  0  0  0  0  0
   -2.8957   -0.0149    0.0000 C   0  0  0  0  0  0  0  0  0  0  0  0
    0.7293   -1.2499    0.0000 C   0  0  0  0  0  0  0  0  0  0  0  0
   -0.7278   -1.2616    0.0000 C   0  0  0  0  0  0  0  0  0  0  0  0
   -1.4370   -0.0099    0.0000 C   0  0  0  0  0  0  0  0  0  0  0  0
    3.6267    1.2427    0.0000 C   0  0  0  0  0  0  0  0  0  0  0  0
    0.7285    1.2608    0.0000 C   0  0  0  0  0  0  0  0  0  0  0  0
   -5.0924   -1.2280    0.0000 C   0  0  0  0  0  0  0  0  0  0  0  0
   -0.7281    1.2491    0.0000 C   0  0  0  0  0  0  0  0  0  0  0  0
   -5.0576    1.2415    0.0000 C   0  0  0  0  0  0  0  0  0  0  0  0
   -2.9019   -2.4766    0.0000 C   0  0  0  0  0  0  0  0  0  0  0  0
    3.6012   -1.2262    0.0000 C   0  0  0  0  0  0  0  0  0  0  0  0
    1.4870   -2.4707    0.0000 C   0  0  0  0  0  0  0  0  0  0  0  0
    2.9016    2.4777    0.0000 C   0  0  0  0  0  0  0  0  0  0  0  0
    5.0926    1.2305    0.0000 C   0  0  0  0  0  0  0  0  0  0  0  0
   -1.4930   -2.4851    0.0000 C   0  0  0  0  0  0  0  0  0  0  0  0
    5.0562   -1.2422    0.0000 C   0  0  0  0  0  0  0  0  0  0  0  0
    1.4931    2.4854    0.0000 C   0  0  0  0  0  0  0  0  0  0  0  0
   -3.6017    1.2260    0.0000 C   0  0  0  0  0  0  0  0  0  0  0  0
    2.8931   -2.4600    0.0000 C   0  0  0  0  0  0  0  0  0  0  0  0
   -1.4856    2.4699    0.0000 C   0  0  0  0  0  0  0  0  0  0  0  0
   -2.8932    2.4587    0.0000 C   0  0  0  0  0  0  0  0  0  0  0  0
   -5.7323    0.0261    0.0000 O   0  0  0  0  0  0  0  0  0  0  0  0
    5.7341   -0.0256    0.0000 O   0  0  0  0  0  0  0  0  0  0  0  0
   -5.7675    2.2600    0.0000 O   0  0  0  0  0  0  0  0  0  0  0  0
   -5.8569   -2.1975    0.0000 O   0  0  0  0  0  0  0  0  0  0  0  0
    5.7668   -2.2603    0.0000 O   0  0  0  0  0  0  0  0  0  0  0  0
    5.8532    2.1982    0.0000 O   0  0  0  0  0  0  0  0  0  0  0  0
    0.9670   -3.4399    0.0000 H   0  0  0  0  0  0  0  0  0  0  0  0
   -3.4659   -3.4253    0.0000 H   0  0  0  0  0  0  0  0  0  0  0  0
   -0.9697   -3.4547    0.0000 H   0  0  0  0  0  0  0  0  0  0  0  0
    0.9691    3.4545    0.0000 H   0  0  0  0  0  0  0  0  0  0  0  0
    3.4650    3.4267    0.0000 H   0  0  0  0  0  0  0  0  0  0  0  0
    3.4811   -3.3977    0.0000 H   0  0  0  0  0  0  0  0  0  0  0  0
   -0.9668    3.4397    0.0000 H   0  0  0  0  0  0  0  0  0  0  0  0
   -3.4809    3.3968    0.0000 H   0  0  0  0  0  0  0  0  0  0  0  0
  1 14  2  0  0  0  0
  2  4  2  0  0  0  0
  2 10  1  0  0  0  0
  2 13  1  0  0  0  0
  3  5  2  0  0  0  0
  3  9  1  0  0  0  0
  3  1  1  0  0  0  0
  4  7  1  0  0  0  0
  5  6  1  0  0  0  0
  5 15  1  0  0  0  0
  6  7  2  0  0  0  0
  6 18  1  0  0  0  0
  8  1  1  0  0  0  0
  8 16  2  0  0  0  0
  8 17  1  0  0  0  0
 11  7  1  0  0  0  0
 11  9  1  0  0  0  0
 13 18  2  0  0  0  0
 14 19  1  0  0  0  0
 20 34  1  0  0  0  0
 20  9  2  0  0  0  0
 20 16  1  0  0  0  0
 21 24  2  0  0  0  0
 21  4  1  0  0  0  0
 21 12  1  0  0  0  0
 22 36  1  0  0  0  0
 22 14  1  0  0  0  0
 22 15  2  0  0  0  0
 23 24  1  0  0  0  0
 23 37  1  0  0  0  0
 23 11  2  0  0  0  0
 24 38  1  0  0  0  0
 25 10  1  0  0  0  0
 25 12  1  0  0  0  0
 26 17  1  0  0  0  0
 26 19  1  0  0  0  0
 27 12  2  0  0  0  0
 28 10  2  0  0  0  0
 29 19  2  0  0  0  0
 30 17  2  0  0  0  0
 31 15  1  0  0  0  0
 32 13  1  0  0  0  0
 33 18  1  0  0  0  0
 35 16  1  0  0  0  0
M  END
