@<TRIPOS>MOLECULE
*****
 10 10 0 0 0
SMALL
GASTEIGER

@<TRIPOS>ATOM
      1 C           2.7932    1.7207    0.0661 C.ar    1  UNL1       -0.0444
      2 C           3.2130    0.4342   -0.1333 C.ar    1  UNL1        0.0016
      3 N           2.0852   -0.3526   -0.2580 N.ar    1  UNL1       -0.3670
      4 C           0.9571    0.4340   -0.1357 C.ar    1  UNL1        0.0016
      5 C           1.3763    1.7206    0.0644 C.ar    1  UNL1       -0.0444
      6 H           3.4224    2.5942    0.2026 H       1  UNL1        0.0632
      7 H          -0.0390    0.0125   -0.2018 H       1  UNL1        0.0807
      8 H           4.2092    0.0129   -0.1972 H       1  UNL1        0.0807
      9 H           0.7467    2.5940    0.1997 H       1  UNL1        0.0632
     10 H           2.0854   -1.3519   -0.4149 H       1  UNL1        0.1648
@<TRIPOS>BOND
     1     4     7    1
     2     1     2   ar
     3     1     6    1
     4     2     8    1
     5     2     3   ar
     6     3     4   ar
     7     1     5   ar
     8     4     5   ar
     9     5     9    1
    10     3    10    1
